taskid: 0 hostname: localhost.localdomain
 Ntasks in X            2 , ntasks in Y            2
Setting blank km_opt entries to domain #1 values.
 --> The km_opt entry in the namelist.input is now max_domains.
Setting blank diff_opt entries to domain #1 values.
 --> The diff_opt entry in the namelist.input is now max_domains.
--- WARNING: traj_opt is zero, but num_traj is not zero; setting num_traj to zero.
--- NOTE: sst_update is 0, setting io_form_auxinput4 = 0 and auxinput4_interval = 0 for all domains
--- NOTE: sst_update is 0, setting io_form_auxinput4 = 0 and auxinput4_interval = 0 for all domains
--- NOTE: sst_update is 0, setting io_form_auxinput4 = 0 and auxinput4_interval = 0 for all domains
--- NOTE: grid_fdda is 0 for domain      1, setting gfdda interval and ending time to 0 for that domain.
--- NOTE: both grid_sfdda and pxlsm_soil_nudge are 0 for domain      1, setting sgfdda interval and ending time to 0 for that domain.
--- NOTE: obs_nudge_opt is 0 for domain      1, setting obs nudging interval and ending time to 0 for that domain.
--- NOTE: grid_fdda is 0 for domain      2, setting gfdda interval and ending time to 0 for that domain.
--- NOTE: both grid_sfdda and pxlsm_soil_nudge are 0 for domain      2, setting sgfdda interval and ending time to 0 for that domain.
--- NOTE: obs_nudge_opt is 0 for domain      2, setting obs nudging interval and ending time to 0 for that domain.
--- NOTE: grid_fdda is 0 for domain      3, setting gfdda interval and ending time to 0 for that domain.
--- NOTE: both grid_sfdda and pxlsm_soil_nudge are 0 for domain      3, setting sgfdda interval and ending time to 0 for that domain.
--- NOTE: obs_nudge_opt is 0 for domain      3, setting obs nudging interval and ending time to 0 for that domain.
--- NOTE: bl_pbl_physics /= 4, implies mfshconv must be 0, resetting
--- NOTE: RRTMG radiation is not used, setting:  o3input=0 to avoid data pre-processing
--- NOTE: num_soil_layers has been set to      4
WRF V3.7 MODEL
 *************************************
 Parent domain
 ids,ide,jds,jde            1         110           1         100
 ims,ime,jms,jme           -4          62          -4          57
 ips,ipe,jps,jpe            1          55           1          50
 *************************************
DYNAMICS OPTION: Eulerian Mass Coordinate
   alloc_space_field: domain            1 ,             105801456  bytes allocated
  med_initialdata_input: calling input_input
Timing for processing wrfinput file (stream 0) for domain        1:    0.24430 elapsed seconds
INPUT LandUse = "MODIFIED_IGBP_MODIS_NOAH"
 LANDUSE TYPE = "MODIFIED_IGBP_MODIS_NOAH" FOUND          33  CATEGORIES           2  SEASONS WATER CATEGORY =           17  SNOW CATEGORY =           15
INITIALIZE THREE Noah LSM RELATED TABLES
Skipping over LUTYPE = USGS
 LANDUSE TYPE = MODIFIED_IGBP_MODIS_NOAH FOUND          20  CATEGORIES
 INPUT SOIL TEXTURE CLASSIFICATION = STAS
 SOIL TEXTURE CLASSIFICATION = STAS FOUND          19  CATEGORIES
 physics_init, ipelec =           0           0
 nssl init: lhl,lvhl =            8          17
 cwccn, cck, ccne =    500000000.      0.600000024       117882968.      0.989282310      0.346153885    
 *************************************
 Nesting domain
 ids,ide,jds,jde            1         100           1          88
 ims,ime,jms,jme           -4          60          -4          54
 ips,ipe,jps,jpe            1          50           1          44
 INTERMEDIATE domain
 ids,ide,jds,jde           37          75          34          68
 ims,ime,jms,jme           32          65          29          60
 ips,ipe,jps,jpe           35          55          32          50
 *************************************
d01 2012-04-14_12:00:00  alloc_space_field: domain            2 ,              98156888  bytes allocated
d01 2012-04-14_12:00:00  alloc_space_field: domain            2 ,               8395008  bytes allocated
d01 2012-04-14_12:00:00 *** Initializing nest domain # 2 from an input file. ***
d01 2012-04-14_12:00:00 med_initialdata_input: calling input_input
Timing for processing wrfinput file (stream 0) for domain        2:    0.20882 elapsed seconds
INPUT LandUse = "MODIFIED_IGBP_MODIS_NOAH"
 LANDUSE TYPE = "MODIFIED_IGBP_MODIS_NOAH" FOUND          33  CATEGORIES           2  SEASONS WATER CATEGORY =           17  SNOW CATEGORY =           15
INITIALIZE THREE Noah LSM RELATED TABLES
Skipping over LUTYPE = USGS
 LANDUSE TYPE = MODIFIED_IGBP_MODIS_NOAH FOUND          20  CATEGORIES
 INPUT SOIL TEXTURE CLASSIFICATION = STAS
 SOIL TEXTURE CLASSIFICATION = STAS FOUND          19  CATEGORIES
 physics_init, ipelec =           0           0
 nssl init: lhl,lvhl =            8          17
 cwccn, cck, ccne =    500000000.      0.600000024       117882968.      0.989282310      0.346153885    
INPUT LandUse = "MODIFIED_IGBP_MODIS_NOAH"
 LANDUSE TYPE = "MODIFIED_IGBP_MODIS_NOAH" FOUND          33  CATEGORIES           2  SEASONS WATER CATEGORY =           17  SNOW CATEGORY =           15
INITIALIZE THREE Noah LSM RELATED TABLES
Skipping over LUTYPE = USGS
 LANDUSE TYPE = MODIFIED_IGBP_MODIS_NOAH FOUND          20  CATEGORIES
 INPUT SOIL TEXTURE CLASSIFICATION = STAS
 SOIL TEXTURE CLASSIFICATION = STAS FOUND          19  CATEGORIES
 physics_init, ipelec =           0           0
 nssl init: lhl,lvhl =            8          17
 cwccn, cck, ccne =    500000000.      0.600000024       117882968.      0.989282310      0.346153885    
INPUT LandUse = "MODIFIED_IGBP_MODIS_NOAH"
 LANDUSE TYPE = "MODIFIED_IGBP_MODIS_NOAH" FOUND          33  CATEGORIES           2  SEASONS WATER CATEGORY =           17  SNOW CATEGORY =           15
INITIALIZE THREE Noah LSM RELATED TABLES
Skipping over LUTYPE = USGS
 LANDUSE TYPE = MODIFIED_IGBP_MODIS_NOAH FOUND          20  CATEGORIES
 INPUT SOIL TEXTURE CLASSIFICATION = STAS
 SOIL TEXTURE CLASSIFICATION = STAS FOUND          19  CATEGORIES
 physics_init, ipelec =           0           0
 nssl init: lhl,lvhl =            8          17
 cwccn, cck, ccne =    500000000.      0.600000024       117882968.      0.989282310      0.346153885    
Timing for Writing wrfout_d01_2012-04-14_12:00:00 for domain        1:    0.54856 elapsed seconds
Timing for processing lateral boundary for domain        1:    0.06299 elapsed seconds
 Tile Strategy is not specified. Assuming 1D-Y
WRF TILE   1 IS      1 IE     55 JS      1 JE     50
WRF NUMBER OF TILES =   1
 *************************************
 Nesting domain
 ids,ide,jds,jde            1          88           1          76
 ims,ime,jms,jme           -4          54          -4          48
 ips,ipe,jps,jpe            1          44           1          38
 INTERMEDIATE domain
 ids,ide,jds,jde           34          68          30          60
 ims,ime,jms,jme           29          60          25          54
 ips,ipe,jps,jpe           32          50          28          44
 *************************************
d02 2012-04-14_12:00:00  alloc_space_field: domain            3 ,              80685540  bytes allocated
d02 2012-04-14_12:00:00  alloc_space_field: domain            3 ,               7407360  bytes allocated
d02 2012-04-14_12:00:00 *** Initializing nest domain # 3 from an input file. ***
d02 2012-04-14_12:00:00 med_initialdata_input: calling input_input
Timing for processing wrfinput file (stream 0) for domain        3:    0.16207 elapsed seconds
INPUT LandUse = "MODIFIED_IGBP_MODIS_NOAH"
 LANDUSE TYPE = "MODIFIED_IGBP_MODIS_NOAH" FOUND          33  CATEGORIES           2  SEASONS WATER CATEGORY =           17  SNOW CATEGORY =           15
INITIALIZE THREE Noah LSM RELATED TABLES
Skipping over LUTYPE = USGS
 LANDUSE TYPE = MODIFIED_IGBP_MODIS_NOAH FOUND          20  CATEGORIES
 INPUT SOIL TEXTURE CLASSIFICATION = STAS
 SOIL TEXTURE CLASSIFICATION = STAS FOUND          19  CATEGORIES
 physics_init, ipelec =           2           2
 nssl init: lhl,lvhl =            8          17
 cwccn, cck, ccne =    500000000.      0.600000024       117882968.      0.989282310      0.346153885    
INPUT LandUse = "MODIFIED_IGBP_MODIS_NOAH"
 LANDUSE TYPE = "MODIFIED_IGBP_MODIS_NOAH" FOUND          33  CATEGORIES           2  SEASONS WATER CATEGORY =           17  SNOW CATEGORY =           15
INITIALIZE THREE Noah LSM RELATED TABLES
Skipping over LUTYPE = USGS
 LANDUSE TYPE = MODIFIED_IGBP_MODIS_NOAH FOUND          20  CATEGORIES
 INPUT SOIL TEXTURE CLASSIFICATION = STAS
 SOIL TEXTURE CLASSIFICATION = STAS FOUND          19  CATEGORIES
 physics_init, ipelec =           2           2
 nssl init: lhl,lvhl =            8          17
 cwccn, cck, ccne =    500000000.      0.600000024       117882968.      0.989282310      0.346153885    
INPUT LandUse = "MODIFIED_IGBP_MODIS_NOAH"
 LANDUSE TYPE = "MODIFIED_IGBP_MODIS_NOAH" FOUND          33  CATEGORIES           2  SEASONS WATER CATEGORY =           17  SNOW CATEGORY =           15
INITIALIZE THREE Noah LSM RELATED TABLES
Skipping over LUTYPE = USGS
 LANDUSE TYPE = MODIFIED_IGBP_MODIS_NOAH FOUND          20  CATEGORIES
 INPUT SOIL TEXTURE CLASSIFICATION = STAS
 SOIL TEXTURE CLASSIFICATION = STAS FOUND          19  CATEGORIES
 physics_init, ipelec =           0           0
 nssl init: lhl,lvhl =            8          17
 cwccn, cck, ccne =    500000000.      0.600000024       117882968.      0.989282310      0.346153885    
Timing for Writing wrfout_d02_2012-04-14_12:00:00 for domain        2:    0.46763 elapsed seconds
 Tile Strategy is not specified. Assuming 1D-Y
WRF TILE   1 IS      1 IE     50 JS      1 JE     44
WRF NUMBER OF TILES =   1
Timing for Writing wrfout_d03_2012-04-14_12:00:00 for domain        3:    0.39903 elapsed seconds
 Tile Strategy is not specified. Assuming 1D-Y
WRF TILE   1 IS      1 IE     44 JS      1 JE     38
WRF NUMBER OF TILES =   1
 Problem 0a with scx il =            6   208.895554    
 at ix,jy,kz =            1           2           1
 i,scx =            3   0.00000000    
 i,scx =            4   0.00000000    
 i,scx =            5   0.00000000    
 i,scx =            6   208.895554    
 i,scx =            7   7.15297312E-02
 i,scx =            8   0.00000000    
 Problem 0a with scx il =            6   208.897171    
 at ix,jy,kz =            2           2           1
 i,scx =            3   0.00000000    
 i,scx =            4   0.00000000    
 i,scx =            5   0.00000000    
 i,scx =            6   208.897171    
 i,scx =            7   7.15253130E-02
 i,scx =            8   0.00000000    
 Problem 0a with scx il =            6   208.898285    
 at ix,jy,kz =            3           2           1
 i,scx =            3   0.00000000    
 i,scx =            4   0.00000000    
 i,scx =            5   0.00000000    
 i,scx =            6   208.898285    
 i,scx =            7   7.15214610E-02
 i,scx =            8   0.00000000    
 Problem 0a with scx il =            6   208.899323    
 at ix,jy,kz =            4           2           1
 i,scx =            3   0.00000000    
 i,scx =            4   0.00000000    
 i,scx =            5   0.00000000    
 i,scx =            6   208.899323    
 i,scx =            7   7.15180710E-02
 i,scx =            8   0.00000000    
 Problem 0a with scx il =            6   208.899857    
 at ix,jy,kz =            5           2           1
 i,scx =            3   0.00000000    
 i,scx =            4   0.00000000    
 i,scx =            5   0.00000000    
 i,scx =            6   208.899857    
 i,scx =            7   7.15153217E-02
 i,scx =            8   0.00000000    
 Problem 0a with scx il =            6   208.900162    
 at ix,jy,kz =            6           2           1
 i,scx =            3   0.00000000    
 i,scx =            4   0.00000000    
 i,scx =            5   0.00000000    
 i,scx =            6   208.900162    
 i,scx =            7   7.15128183E-02
 i,scx =            8   0.00000000    
 Problem 0a with scx il =            7   7.15297312E-02
 at ix,jy,kz =            1           2           1
 i,scx =            3   0.00000000    
 i,scx =            4   0.00000000    
 i,scx =            5   0.00000000    
 i,scx =            6   208.895554    
 i,scx =            7   7.15297312E-02
 i,scx =            8   0.00000000    
 Problem 0a with scx il =            7   7.15253130E-02
 at ix,jy,kz =            2           2           1
 i,scx =            3   0.00000000    
 i,scx =            4   0.00000000    
 i,scx =            5   0.00000000    
 i,scx =            6   208.897171    
 i,scx =            7   7.15253130E-02
 i,scx =            8   0.00000000    
 Problem 0a with scx il =            7   7.15214610E-02
 at ix,jy,kz =            3           2           1
 i,scx =            3   0.00000000    
 i,scx =            4   0.00000000    
 i,scx =            5   0.00000000    
 i,scx =            6   208.898285    
 i,scx =            7   7.15214610E-02
 i,scx =            8   0.00000000    
 Problem 0a with scx il =            7   7.15180710E-02
 at ix,jy,kz =            4           2           1
 i,scx =            3   0.00000000    
 i,scx =            4   0.00000000    
 i,scx =            5   0.00000000    
 i,scx =            6   208.899323    
 i,scx =            7   7.15180710E-02
 i,scx =            8   0.00000000    
 Problem 0a with scx il =            7   7.15153217E-02
 at ix,jy,kz =            5           2           1
 i,scx =            3   0.00000000    
 i,scx =            4   0.00000000    
 i,scx =            5   0.00000000    
 i,scx =            6   208.899857    
 i,scx =            7   7.15153217E-02
 i,scx =            8   0.00000000    
 Problem 0a with scx il =            7   7.15128183E-02
 at ix,jy,kz =            6           2           1
 i,scx =            3   0.00000000    
 i,scx =            4   0.00000000    
 i,scx =            5   0.00000000    
 i,scx =            6   208.900162    
 i,scx =            7   7.15128183E-02
 i,scx =            8   0.00000000    
 Problem 0a with scx il =            7   7.15109706E-02
 at ix,jy,kz =            7           2           1
 i,scx =            3   0.00000000    
 i,scx =            4   0.00000000    
 i,scx =            5   0.00000000    
 i,scx =            6   0.00000000    
 i,scx =            7   7.15109706E-02
 i,scx =            8   0.00000000    
 Problem 0a with scx il =            7   7.15095922E-02
 at ix,jy,kz =            8           2           1
 i,scx =            3   0.00000000    
 i,scx =            4   0.00000000    
 i,scx =            5   0.00000000    
 i,scx =            6   0.00000000    
 i,scx =            7   7.15095922E-02
 i,scx =            8   0.00000000    
